datafiles/case9mod2.m
function mpc = case9mod2
%CASE9MOD2

%% MATPOWER Case Format : Version 2
mpc.version = '2';

%%-----  Power Flow Data  -----%%
%% system MVA base
mpc.baseMVA = 100;

%% bus data
%	bus_i	type	Pd	Qd	Gs	Bs	area	Vm	Va	baseKV	zone	Vmax	Vmin
mpc.bus = [
	1	3	0	0	0	0	1	1.04	0	345	1	1.1	0.9;
	2	2	0	0	0	0	1	1.025	7.75196564	345	1	1.1	0.9;
	3	2	0	0	0	0	1	1.03675494	-5.28287699	345	1	1.1	0.9;
	4	1	0	0	0	0	1	1.02911391	-3.68581316	345	1	1.1	0.9;
	5	1	125	50	0	0	1	0.998925465	-5.89416454	345	1	1.1	0.9;
	6	1	90	30	0	0	1	1.01815596	-7.15288074	345	1	1.1	0.9;
	7	1	0	0	0	0	1	1.02578524	0.924733228	345	1	1.1	0.9;
	8	1	100	35	0	0	1	1.01638431	-3.93425402	345	1	1.1	0.9;
	9	1	0	0	0	0	1	1.03675191	-5.2828767	345	1	1.1	0.9;
];

%% generator data
%	bus	Pg	Qg	Qmax	Qmin	Vg	mBase	status	Pmax	Pmin	Pc1	Pc2	Qc1min	Qc1max	Qc2min	Qc2max	ramp_agc	ramp_10	ramp_30	ramp_q	apf
mpc.gen = [
	1	119.490231	23.2859868	300	-300	1.04	100	1	350	10	0	0	0	0	0	0	0	0	0	0	0;
	2	200	10.3158619	300	-300	1.025	100	1	300	10	0	0	0	0	0	0	0	0	0	0	0;
	3	0	0	300	-300	1.025	100	0	270	10	0	0	0	0	0	0	0	0	0	0	0;
];

%% branch data
%	fbus	tbus	r	x	b	rateA	rateB	rateC	ratio	angle	status	angmin	angmax	Pf	Qf	Pt	Qt
mpc.branch = [
	1	4	0.0001	0.0576	0.0001	380	250	250	0	0	1	-360	360	119.4902	23.2860	-119.4765	-15.4042;
	2	7	0.0001	0.0625	0.0001	250	250	250	0	0	1	-360	360	200.0000	10.3159	-199.9618	13.5324;
	3	9	0.0001	0.0586	0.0001	300	300	250	0	0	1	-360	360	-0.0000	0.0000	0.0000	-0.0107;
	4	5	0.01	0.085	0.176	250	250	250	0	0	1	-360	360	50.3125	22.2091	-49.9796	-37.4806;
	4	6	0.017	0.092	0.158	250	250	250	0	0	1	-360	360	69.1641	-6.8049	-68.3958	-5.5937;
	5	7	0.032	0.161	0.306	250	250	250	0	0	1	-360	360	-75.0204	-12.5194	76.8277	-9.7540;
	6	9	0.039	0.17	0.358	150	150	150	0	0	1	-360	360	-21.6042	-24.4063	21.7927	-12.5679;
	7	8	0.0085	0.072	0.149	250	250	250	0	0	1	-360	360	123.1341	-3.7783	-121.9080	-1.3710;
	8	9	0.0119	0.1008	0.209	150	150	150	0	0	1	-360	360	21.9080	-33.6290	-21.7927	12.5786;
];

%%-----  OPF Data  -----%%
%% area data
%	area	refbus
mpc.areas = [
	1	1;
];

%% generator cost data
%	1	startup	shutdown	n	x1	y1	...	xn	yn
%	2	startup	shutdown	n	c(n-1)	...	c0
mpc.gencost = [
	2	1500	0	3	0.11	5	150;
	2	2000	0	3	0.085	1.2	600;
	2	3000	0	3	0.1225	1	335;
];
